<?xml version="1.0" encoding="UTF-8"?>

<!-- generated on Wed 20 May 2020 10:48:38 AM CEST by Eclipse SUMO netedit Version v1_6_0+0220-8758e01e99
<configuration xmlns:xsi="http://www.w3.org/2001/XMLSchema-instance" xsi:noNamespaceSchemaLocation="http://sumo.dlr.de/xsd/netconvertConfiguration.xsd">

    <input>
        <sumo-net-file value="/home/patrick/School/Thesis/SumoSound/sound_test.net.xml"/>
    </input>

    <output>
        <output-file value="/home/patrick/School/Thesis/SumoSound/sound_test.net.xml"/>
    </output>

    <processing>
        <geometry.min-radius.fix.railways value="false"/>
        <geometry.max-grade.fix value="false"/>
        <offset.disable-normalization value="true"/>
        <lefthand value="false"/>
    </processing>

    <junctions>
        <no-internal-links value="true"/>
        <no-turnarounds value="true"/>
        <junctions.corner-detail value="5"/>
        <junctions.limit-turn-speed value="5.5"/>
        <rectangular-lane-cut value="false"/>
    </junctions>

    <pedestrian>
        <walkingareas value="false"/>
    </pedestrian>

    <report>
        <aggregate-warnings value="5"/>
    </report>

</configuration>
-->

<net version="1.6" junctionCornerDetail="5" limitTurnSpeed="5.50" xmlns:xsi="http://www.w3.org/2001/XMLSchema-instance" xsi:noNamespaceSchemaLocation="http://sumo.dlr.de/xsd/net_file.xsd">

    <location netOffset="0.00,0.00" convBoundary="-236.34,-9.27,233.37,4.24" origBoundary="-10000000000.00,-10000000000.00,10000000000.00,10000000000.00" projParameter="!"/>

    <edge id="eastbound" from="gneJ9" to="gneJ10" priority="-1">
        <lane id="eastbound_0" index="0" speed="13.89" length="201.02" shape="-100.30,1.19 100.71,2.64"/>
    </edge>
    <edge id="rrtrack" from="gneJ11" to="gneJ12" priority="-1">
        <lane id="rrtrack_0" index="0" allow="rail_urban rail rail_electric rail_fast" speed="27.78" length="469.72" shape="-236.33,-10.87 233.38,-7.16"/>
    </edge>
    <edge id="westbound" from="gneJ10" to="gneJ9" priority="-1">
        <lane id="westbound_0" index="0" speed="13.89" length="201.02" shape="100.69,5.84 -100.32,4.39"/>
    </edge>

    <junction id="gneJ10" type="dead_end" x="100.70" y="4.24" incLanes="eastbound_0" intLanes="" shape="100.70,4.24 100.72,1.04 100.70,4.24"/>
    <junction id="gneJ11" type="dead_end" x="-236.34" y="-9.27" incLanes="" intLanes="" shape="-236.34,-9.27 -236.31,-12.47"/>
    <junction id="gneJ12" type="dead_end" x="233.37" y="-5.56" incLanes="rrtrack_0" intLanes="" shape="233.40,-8.76 233.37,-5.56"/>
    <junction id="gneJ9" type="dead_end" x="-100.31" y="2.79" incLanes="westbound_0" intLanes="" shape="-100.31,2.79 -100.33,5.99 -100.31,2.79"/>

</net>
